/*---------------------------------------------------------------------------*\
| =========                 |                                                 |
| \\      /  F ield         | OpenFOAM: The Open Source CFD Toolbox           |
|  \\    /   O peration     | Version:  1.3                                   |
|   \\  /    A nd           | Web:      http://www.openfoam.org               |
|    \\/     M anipulation  |                                                 |
\*---------------------------------------------------------------------------*/

FoamFile
{
    version         2.0;
    format          ascii;

    root            "";
    case            "";
    instance        "";
    local           "";

    class           dictionary;
    object          blockMeshDict;
}

// * * * * * * * * * * * * * * * * * * * * * * * * * * * * * * * * * * * * * //


convertToMeters 0.01;

vertices        
(
    (0 0 0)
    (10 0 0)
    (10 6 0)
    (0 5 0)
    (0 0 0.1)
    (10 0 0.1)
    (10 6 0.1)
    (0 5 0.1)
);

blocks          
(
    hex (0 1 2 3 4 5 6 7) (100 100 1) simpleGrading (10 10 1)
);

edges           
(
);

patches         
(
    wall top 
    (
        (3 2 6 7)
    )
    wall inlet
    (
        (0 3 7 4)
    )
    wall outlet
    (
        (2 1 5 6)
    )
    wall plate
    (
        (0 4 5 1)
    )
    empty frontAndBack 
    (
        (3 0 1 2)
        (7 6 5 4)
    )
);

mergePatchPairs 
(
);


// ************************************************************************* //
